NOVO24/1726527/Linhas.dss
! ==========================================================
! LINHAS — geradas de SSDMT
! Barras = PAC_1 / PAC_2 da BDGD (preservados)
! ==========================================================
New Line.245633823 Bus1=node_1902237800.1.2.3 Bus2=node_434754643.1.2.3 LineCode=CND_30_3F Length=4.14 Units=m
New Line.245632058 Bus1=node_434238769.2 Bus2=node_434238733.2 LineCode=CND_907_1F Length=421.18 Units=m
New Line.244987115 Bus1=node_430355985.1.2.3 Bus2=node_430354616.1.2.3 LineCode=CND_51_3F Length=174.05 Units=m
New Line.244987052 Bus1=node_430949539.1.2.3 Bus2=node_430949529.1.2.3 LineCode=CND_51_3F Length=102.07 Units=m
New Line.245632138 Bus1=node_434239239.2 Bus2=node_434406940.2 LineCode=CND_907_1F Length=119.33 Units=m
New Line.245464371 Bus1=node_433443495.3 Bus2=node_427387923.3 LineCode=CND_907_1F Length=134.35 Units=m
New Line.2536096665 Bus1=node_2844461746.1.2.3 Bus2=node_2844461854.1.2.3 LineCode=CND_22_3F Length=3.39 Units=m
New Line.247476625 Bus1=node_443213244.2 Bus2=node_443213245.2 LineCode=CND_907_1F Length=62.69 Units=m
New Line.243630757 Bus1=node_424369367.1.2.3 Bus2=node_424369507.1.2.3 LineCode=CND_11_3F Length=338.77 Units=m
New Line.646998508 Bus1=node_915777267.2 Bus2=node_915777278.2 LineCode=CND_910_1F Length=110.69 Units=m
New Line.244820382 Bus1=node_430197615.3 Bus2=node_430197439.3 LineCode=CND_907_1F Length=40.82 Units=m
New Line.245631997 Bus1=node_434238768.2 Bus2=node_434238769.2 LineCode=CND_907_1F Length=45.49 Units=m
New Line.243630890 Bus1=node_424370171.1 Bus2=node_424370172.1 LineCode=CND_907_1F Length=90.40 Units=m
New Line.478558337 Bus1=node_436665950.1 Bus2=node_748557217.1 LineCode=CND_907_1F Length=2.41 Units=m
New Line.1557743057 Bus1=node_1877195365.1 Bus2=node_1877195376.1 LineCode=CND_902_1F Length=55.45 Units=m
New Line.245631926 Bus1=node_434238413.1.2.3 Bus2=node_434238414.1.2.3 LineCode=CND_11_3F Length=95.92 Units=m
New Line.1581965446 Bus1=node_1902237800.1 Bus2=node_1902237801.1 LineCode=CND_902_1F Length=5.01 Units=m
New Line.246783100 Bus1=node_440222561.1.2.3 Bus2=node_440222562.1.2.3 LineCode=CND_50_3F Length=35.28 Units=m
New Line.247476658 Bus1=node_443213409.2 Bus2=node_443213410.2 LineCode=CND_907_1F Length=260.31 Units=m
New Line.243631201 Bus1=node_424371487.1.2.3 Bus2=node_424436137.1.2.3 LineCode=CND_11_3F Length=38.91 Units=m
New Line.911384414 Bus1=node_712791239.3 Bus2=node_1172129132.3 LineCode=CND_907_1F Length=277.19 Units=m
New Line.244987011 Bus1=node_429878707.1.2.3 Bus2=node_429878617.1.2.3 LineCode=CND_51_3F Length=147.56 Units=m
New Line.246113490 Bus1=node_436822482.1 Bus2=node_436822527.1 LineCode=CND_907_1F Length=40.55 Units=m
New Line.246783019 Bus1=node_440222156.1.2.3 Bus2=node_440222157.1.2.3 LineCode=CND_50_3F Length=36.04 Units=m
New Line.244173062 Bus1=node_427218093.2 Bus2=node_427217652.2 LineCode=CND_909_1F Length=85.09 Units=m
New Line.244987025 Bus1=node_429880637.1.2.3 Bus2=node_429878707.1.2.3 LineCode=CND_51_3F Length=311.13 Units=m
New Line.244674617 Bus1=node_429494433.1.2.3 Bus2=node_429494434.1.2.3 LineCode=CND_19_3F Length=74.06 Units=m
New Line.710481017 Bus1=node_2802904426.3 Bus2=node_983459291.3 LineCode=CND_907_1F Length=62.61 Units=m
New Line.244173016 Bus1=node_427217963.2 Bus2=node_427218093.2 LineCode=CND_909_1F Length=43.45 Units=m
New Line.244820173 Bus1=node_430196634.1 Bus2=node_430196009.1 LineCode=CND_907_1F Length=84.88 Units=m
New Line.244987098 Bus1=node_430949769.1.2.3 Bus2=node_430949764.1.2.3 LineCode=CND_51_3F Length=94.53 Units=m
New Line.245463999 Bus1=node_433441626.3 Bus2=node_433441632.3 LineCode=CND_907_1F Length=26.70 Units=m
New Line.246113513 Bus1=node_436822443.1 Bus2=node_436822663.1 LineCode=CND_907_1F Length=578.30 Units=m
New Line.245632107 Bus1=node_434239318.3 Bus2=node_434239319.3 LineCode=CND_907_1F Length=143.70 Units=m
New Line.479098776 Bus1=node_749105534.3 Bus2=node_749105548.3 LineCode=CND_910_1F Length=258.65 Units=m
New Line.244820833 Bus1=node_430354526.1 Bus2=node_430354527.1 LineCode=CND_907_1F Length=59.49 Units=m
New Line.247476764 Bus1=node_434407200.1 Bus2=node_443334172.1 LineCode=CND_907_1F Length=232.05 Units=m
New Line.247112350 Bus1=node_441525271.1.2.3 Bus2=node_441525356.1.2.3 LineCode=CND_50_3F Length=37.67 Units=m
New Line.243630811 Bus1=node_424303957.2 Bus2=node_424369777.2 LineCode=CND_907_1F Length=43.39 Units=m
New Line.245633851 Bus1=node_434754782.1.2.3 Bus2=node_434754783.1.2.3 LineCode=CND_30_3F Length=4.80 Units=m
New Line.246113339 Bus1=node_436821698.1 Bus2=node_436821793.1 LineCode=CND_907_1F Length=60.42 Units=m
New Line.245464285 Bus1=node_433443046.3 Bus2=node_433443055.3 LineCode=CND_907_1F Length=80.12 Units=m
New Line.776909135 Bus1=node_433442680.3 Bus2=node_1049556685.3 LineCode=CND_907_1F Length=5.73 Units=m
New Line.244818880 Bus1=node_429880543.3 Bus2=node_430035582.3 LineCode=CND_907_1F Length=192.69 Units=m
New Line.247346233 Bus1=node_443067968.2 Bus2=node_443067969.2 LineCode=CND_907_1F Length=370.58 Units=m
New Line.246783075 Bus1=node_440222436.1.2.3 Bus2=node_440222396.1.2.3 LineCode=CND_50_3F Length=18.73 Units=m
New Line.244821125 Bus1=node_909507859.1 Bus2=node_430355991.1 LineCode=CND_907_1F Length=42.23 Units=m
New Line.2361244901 Bus1=node_2505953274.3 Bus2=node_2505953279.3 LineCode=CND_911_1F Length=45.97 Units=m
New Line.243630920 Bus1=node_424369437.1 Bus2=node_424369851.1 LineCode=CND_907_1F Length=100.25 Units=m
New Line.246112262 Bus1=node_436666105.1.2.3 Bus2=node_436666106.1.2.3 LineCode=CND_11_3F Length=69.93 Units=m
New Line.245632214 Bus1=node_434407314.2 Bus2=node_434406844.2 LineCode=CND_907_1F Length=209.91 Units=m
New Line.244674632 Bus1=node_429494434.1.2.3 Bus2=node_429653391.1.2.3 LineCode=CND_19_3F Length=16.87 Units=m
New Line.2018532176 Bus1=node_2335876038.3 Bus2=node_2335876049.3 LineCode=CND_911_1F Length=32.69 Units=m
New Line.245633788 Bus1=node_429492889.1.2.3 Bus2=node_434591292.1.2.3 LineCode=CND_30_3F Length=3.66 Units=m
New Line.245631898 Bus1=node_434238273.1.2.3 Bus2=node_429653470.1.2.3 LineCode=CND_11_3F Length=454.80 Units=m
New Line.243629704 Bus1=node_424303958.1.2.3 Bus2=node_424304068.1.2.3 LineCode=CND_13_3F Length=62.15 Units=m
New Line.2217748205 Bus1=node_2523133947.3 Bus2=node_2523133965.3 LineCode=CND_911_1F Length=47.28 Units=m
New Line.244821521 Bus1=node_2744416721.2 Bus2=node_2744416741.2 LineCode=CND_907_1F Length=12.41 Units=m
New Line.245633924 Bus1=node_434755143.1.2.3 Bus2=node_434755148.1.2.3 LineCode=CND_30_3F Length=6.07 Units=m
New Line.782178059 Bus1=node_1054864660.1.2.3 Bus2=node_1054864671.1.2.3 LineCode=CND_20_3F Length=20.50 Units=m
New Line.244820817 Bus1=node_430354446.3 Bus2=node_430354441.3 LineCode=CND_907_1F Length=35.27 Units=m
New Line.247111929 Bus1=node_441523234.2 Bus2=node_441523083.2 LineCode=CND_909_1F Length=28.39 Units=m
New Line.246783177 Bus1=node_440222467.1.2.3 Bus2=node_440222471.1.2.3 LineCode=CND_50_3F Length=31.88 Units=m
New Line.1624433088 Bus1=node_1885109046.1 Bus2=node_1944714004.1 LineCode=CND_907_1F Length=84.67 Units=m
New Line.246112561 Bus1=node_427387368.2 Bus2=node_436667609.2 LineCode=CND_907_1F Length=130.06 Units=m
New Line.247345135 Bus1=node_442757411.1.2.3 Bus2=node_436667808.1.2.3 LineCode=CND_11_3F Length=235.18 Units=m
New Line.1562745499 Bus1=node_433442021.3 Bus2=node_1882141877.3 LineCode=CND_902_1F Length=35.72 Units=m
New Line.243631200 Bus1=node_424371012.1.2.3 Bus2=node_2781474647.1.2.3 LineCode=CND_19_3F Length=33.69 Units=m
New Line.243631150 Bus1=node_424371471.1 Bus2=node_424371456.1 LineCode=CND_907_1F Length=46.78 Units=m
New Line.245463985 Bus1=node_433441561.1.2.3 Bus2=node_433441562.1.2.3 LineCode=CND_11_3F Length=39.81 Units=m
New Line.247611007 Bus1=node_444112997.1.2.3 Bus2=node_444112998.1.2.3 LineCode=CND_13_3F Length=164.64 Units=m
New Line.246783111 Bus1=node_440222602.1.2.3 Bus2=node_440222606.1.2.3 LineCode=CND_50_3F Length=30.16 Units=m
New Line.246113286 Bus1=node_436820093.3 Bus2=node_436821277.3 LineCode=CND_907_1F Length=283.89 Units=m
New Line.244818441 Bus1=node_429878783.2 Bus2=node_429878772.2 LineCode=CND_907_1F Length=62.51 Units=m
New Line.245632568 Bus1=node_434409093.3 Bus2=node_434409038.3 LineCode=CND_907_1F Length=204.68 Units=m
New Line.244820815 Bus1=node_430354432.1 Bus2=node_430354376.1 LineCode=CND_907_1F Length=50.22 Units=m
New Line.1123984576 Bus1=100_1123984694.1.2.3 Bus2=node_1393209798.1.2.3 LineCode=CND_30_3F Length=5.61 Units=m
New Line.244820615 Bus1=100_1113580247.1 Bus2=node_430353437.1 LineCode=CND_907_1F Length=36.54 Units=m
New Line.247346464 Bus1=node_443068254.2 Bus2=node_427697904.2 LineCode=CND_907_1F Length=171.53 Units=m
New Line.245631890 Bus1=node_434238214.2 Bus2=node_434237783.2 LineCode=CND_907_1F Length=191.65 Units=m
New Line.2217748265 Bus1=node_2523134097.3 Bus2=node_2523134107.3 LineCode=CND_911_1F Length=50.89 Units=m
New Line.244820139 Bus1=node_726278743.1 Bus2=node_726278715.1 LineCode=CND_907_1F Length=284.85 Units=m
New Line.244820818 Bus1=node_430354451.1 Bus2=node_430354452.1 LineCode=CND_907_1F Length=134.66 Units=m
New Line.245632210 Bus1=node_434407210.3 Bus2=node_434407300.3 LineCode=CND_907_1F Length=61.93 Units=m
New Line.243631144 Bus1=node_424371402.3 Bus2=node_424371442.3 LineCode=CND_907_1F Length=76.86 Units=m
New Line.244821811 Bus1=node_424369557.1 Bus2=node_430535223.1 LineCode=CND_907_1F Length=195.81 Units=m
New Line.246783071 Bus1=node_440222416.1.2.3 Bus2=node_440222061.1.2.3 LineCode=CND_50_3F Length=32.44 Units=m
New Line.244821039 Bus1=node_430355560.1 Bus2=node_430355561.1 LineCode=CND_907_1F Length=198.81 Units=m
New Line.245633744 Bus1=node_434590993.1.2.3 Bus2=node_434591068.1.2.3 LineCode=CND_30_3F Length=220.17 Units=m
New Line.245633822 Bus1=node_1902237800.1.2.3 Bus2=node_434754638.1.2.3 LineCode=CND_30_3F Length=425.26 Units=m
New Line.247477742 Bus1=node_427389562.1.2.3 Bus2=node_443476522.1.2.3 LineCode=CND_13_3F Length=185.78 Units=m
New Line.245633854 Bus1=node_434754792.1.2.3 Bus2=node_434754798.1.2.3 LineCode=CND_30_3F Length=8.49 Units=m
New Line.247476365 Bus1=node_427698339.2 Bus2=node_443211937.2 LineCode=CND_907_1F Length=185.00 Units=m
New Line.243631267 Bus1=node_424436466.3 Bus2=node_424436467.3 LineCode=CND_907_1F Length=194.77 Units=m
New Line.2217748220 Bus1=node_2523134005.3 Bus2=node_2523134015.3 LineCode=CND_911_1F Length=47.25 Units=m
New Line.245797656 Bus1=node_434757951.1.2.3 Bus2=node_434407089.1.2.3 LineCode=CND_30_3F Length=42.23 Units=m
New Line.246783138 Bus1=node_440222751.1.2.3 Bus2=node_440222752.1.2.3 LineCode=CND_20_3F Length=25.87 Units=m
New Line.2497218694 Bus1=node_2655860679.3 Bus2=node_2655860694.3 LineCode=CND_923_1F Length=26.03 Units=m
New Line.244818407 Bus1=node_429878593.1 Bus2=node_429877173.1 LineCode=CND_907_1F Length=125.35 Units=m
New Line.244820369 Bus1=node_430197465.3 Bus2=node_430197615.3 LineCode=CND_907_1F Length=40.81 Units=m
New Line.244987135 Bus1=node_430949935.1 Bus2=node_430949955.1 LineCode=CND_911_1F Length=37.30 Units=m
New Line.247346399 Bus1=node_443067964.2 Bus2=node_443068799.2 LineCode=CND_907_1F Length=118.29 Units=m
New Line.246008241 Bus1=node_436012994.3 Bus2=node_436012995.3 LineCode=CND_907_1F Length=36.91 Units=m
New Line.247476555 Bus1=node_443211587.2 Bus2=node_443212736.2 LineCode=CND_907_1F Length=220.29 Units=m
New Line.245464384 Bus1=node_429178682.3 Bus2=node_433443561.3 LineCode=CND_907_1F Length=15.70 Units=m
New Line.247112356 Bus1=node_440223367.1.2.3 Bus2=node_440223501.1.2.3 LineCode=CND_50_3F Length=8.79 Units=m
New Line.243630893 Bus1=node_424370172.1 Bus2=node_424370187.1 LineCode=CND_907_1F Length=98.38 Units=m
New Line.245631965 Bus1=node_434238608.1 Bus2=node_434238603.1 LineCode=CND_907_1F Length=31.90 Units=m
New Line.245797164 Bus1=node_427544005.1.2.3 Bus2=node_1902134695.1.2.3 LineCode=CND_30_3F Length=155.37 Units=m
New Line.2217748235 Bus1=node_2523134035.3 Bus2=node_2523134046.3 LineCode=CND_911_1F Length=40.80 Units=m
New Line.1493328674 Bus1=node_1882141877.3 Bus2=node_1800968018.3 LineCode=CND_902_1F Length=17.52 Units=m
New Line.246783284 Bus1=node_1637942705.1.2.3 Bus2=node_1637942706.1.2.3 LineCode=CND_50_3F Length=10.89 Units=m
New Line.247476691 Bus1=node_443068069.2 Bus2=node_443068838.2 LineCode=CND_907_1F Length=102.05 Units=m
New Line.246783154 Bus1=node_440222831.1 Bus2=node_440222832.1 LineCode=CND_909_1F Length=22.79 Units=m
New Line.575198481 Bus1=node_843311554.1 Bus2=node_843311572.1 LineCode=CND_907_1F Length=2.53 Units=m
New Line.245632457 Bus1=node_434408444.3 Bus2=node_434408523.3 LineCode=CND_907_1F Length=220.92 Units=m
New Line.244821682 Bus1=node_430534809.1 Bus2=node_424370006.1 LineCode=CND_907_1F Length=453.82 Units=m
New Line.247476851 Bus1=node_443334462.3 Bus2=node_443068193.3 LineCode=CND_907_1F Length=163.64 Units=m
New Line.246192309 Bus1=node_436714412.3 Bus2=node_436714371.3 LineCode=CND_902_1F Length=55.56 Units=m
New Line.245632435 Bus1=node_434408428.3 Bus2=node_434408429.3 LineCode=CND_907_1F Length=45.64 Units=m
New Line.247477497 Bus1=node_443337884.1.2.3 Bus2=node_443070968.1.2.3 LineCode=CND_13_3F Length=46.94 Units=m
New Line.245165615 Bus1=node_432383588.3 Bus2=node_432380821.3 LineCode=CND_907_1F Length=44.73 Units=m
New Line.244674594 Bus1=node_429494318.2 Bus2=node_429494319.2 LineCode=CND_902_1F Length=71.77 Units=m
New Line.246783080 Bus1=node_440222461.1.2.3 Bus2=node_440222191.1.2.3 LineCode=CND_50_3F Length=37.16 Units=m
New Line.244820832 Bus1=node_430354521.3 Bus2=node_430354411.3 LineCode=CND_907_1F Length=258.53 Units=m
New Line.245631863 Bus1=node_434238098.3 Bus2=node_434238099.3 LineCode=CND_907_1F Length=144.25 Units=m
New Line.244818555 Bus1=node_429878828.3 Bus2=node_429879373.3 LineCode=CND_907_1F Length=144.18 Units=m
New Line.246113022 Bus1=node_436510597.1 Bus2=node_436669722.1 LineCode=CND_907_1F Length=172.50 Units=m
New Line.244818116 Bus1=node_429877173.1 Bus2=node_429877174.1 LineCode=CND_907_1F Length=59.58 Units=m
New Line.2072537801 Bus1=node_429724575.1 Bus2=node_2384823304.1 LineCode=CND_902_1F Length=15.45 Units=m
New Line.351855523 Bus1=100_351752467.1.2.3 Bus2=node_430356311.1.2.3 LineCode=CND_19_3F Length=46.83 Units=m
New Line.2710991154 Bus1=node_436821008.1 Bus2=node_2896504897.1 LineCode=CND_923_1F Length=19.84 Units=m
New Line.243629717 Bus1=node_424304068.1.2.3 Bus2=node_424304077.1.2.3 LineCode=CND_13_3F Length=22.69 Units=m
New Line.247476668 Bus1=node_443212462.2 Bus2=node_443213329.2 LineCode=CND_907_1F Length=186.63 Units=m
New Line.348361195 Bus1=node_843311572.1 Bus2=node_544501687.1 LineCode=CND_907_1F Length=1.37 Units=m
New Line.246007863 Bus1=100_351751977.1.2.3 Bus2=node_435865100.1.2.3 LineCode=CND_11_3F Length=31.13 Units=m
New Line.246783218 Bus1=node_440222522.1 Bus2=node_440222836.1 LineCode=CND_909_1F Length=14.38 Units=m
New Line.1891361572 Bus1=node_2212205182.1 Bus2=node_2212205192.1 LineCode=CND_915_1F Length=41.19 Units=m
New Line.1807310329 Bus1=node_2130957880.1 Bus2=node_2130957891.1 LineCode=CND_915_1F Length=40.18 Units=m
New Line.245464213 Bus1=node_433442322.3 Bus2=node_433442706.3 LineCode=CND_907_1F Length=81.21 Units=m
New Line.243631273 Bus1=node_424436481.1 Bus2=node_424436497.1 LineCode=CND_907_1F Length=211.84 Units=m
New Line.244820059 Bus1=node_430196064.3 Bus2=node_430196014.3 LineCode=CND_907_1F Length=26.08 Units=m
New Line.244173515 Bus1=node_427388057.3 Bus2=node_427388058.3 LineCode=CND_909_1F Length=23.98 Units=m
New Line.243591384 Bus1=node_424103721.1.2.3 Bus2=node_424103722.1.2.3 LineCode=CND_13_3F Length=73.90 Units=m
New Line.1327430229 Bus1=node_2242443311.3 Bus2=node_1624283421.3 LineCode=CND_1027_1F Length=68.91 Units=m
New Line.244821060 Bus1=node_430354552.3 Bus2=node_430354601.3 LineCode=CND_907_1F Length=310.25 Units=m
New Line.245839982 Bus1=node_430196759.3 Bus2=node_435863026.3 LineCode=CND_907_1F Length=129.38 Units=m
New Line.245631812 Bus1=node_434237843.2 Bus2=node_434237844.2 LineCode=CND_907_1F Length=75.31 Units=m
New Line.247112323 Bus1=node_441524763.1.2.3 Bus2=node_441525221.1.2.3 LineCode=CND_50_3F Length=39.00 Units=m
New Line.2543662715 Bus1=node_2783409750.2 Bus2=node_2783409780.2 LineCode=CND_915_1F Length=49.91 Units=m
New Line.245631759 Bus1=node_434237573.1.2.3 Bus2=node_434237579.1.2.3 LineCode=CND_11_3F Length=39.85 Units=m
New Line.244820052 Bus1=node_430194985.2 Bus2=node_430196030.2 LineCode=CND_902_1F Length=37.32 Units=m
New Line.247477616 Bus1=node_443338080.1.2.3 Bus2=node_443338199.1.2.3 LineCode=CND_13_3F Length=110.08 Units=m
New Line.244173365 Bus1=node_427387303.1 Bus2=node_427387288.1 LineCode=CND_909_1F Length=42.42 Units=m
New Line.246783195 Bus1=node_440222962.1.2.3 Bus2=node_440223037.1.2.3 LineCode=CND_50_3F Length=34.50 Units=m
New Line.245633907 Bus1=node_434407409.1.2.3 Bus2=node_434755063.1.2.3 LineCode=CND_30_3F Length=121.31 Units=m
New Line.245633904 Bus1=node_434754793.1.2.3 Bus2=node_434754992.1.2.3 LineCode=CND_30_3F Length=51.12 Units=m
New Line.246113045 Bus1=node_436669523.1.2.3 Bus2=node_436820323.1.2.3 LineCode=CND_11_3F Length=388.25 Units=m
New Line.244821209 Bus1=node_430356414.1 Bus2=node_430356415.1 LineCode=CND_907_1F Length=51.71 Units=m
New Line.244173414 Bus1=node_427387548.1 Bus2=node_427386878.1 LineCode=CND_909_1F Length=52.92 Units=m
New Line.247345034 Bus1=node_442757095.2 Bus2=node_442757096.2 LineCode=CND_907_1F Length=83.07 Units=m
New Line.244672529 Bus1=node_429178683.3 Bus2=node_429179052.3 LineCode=CND_902_1F Length=48.59 Units=m
New Line.245631799 Bus1=node_434237704.2 Bus2=node_434237779.2 LineCode=CND_907_1F Length=50.60 Units=m
New Line.246113327 Bus1=node_436821727.1 Bus2=node_436821733.1 LineCode=CND_907_1F Length=130.57 Units=m
New Line.245633839 Bus1=node_434238698.1.2.3 Bus2=node_434754723.1.2.3 LineCode=CND_30_3F Length=8.70 Units=m
New Line.2497218724 Bus1=node_2655860745.3 Bus2=node_2655860755.3 LineCode=CND_911_1F Length=23.99 Units=m
New Line.710480981 Bus1=node_983459291.3 Bus2=node_983459223.3 LineCode=CND_907_1F Length=90.81 Units=m
New Line.961770313 Bus1=node_1223957891.1.2.3 Bus2=node_1223957906.1.2.3 LineCode=CND_11_3F Length=343.89 Units=m
New Line.245632204 Bus1=node_434406875.3 Bus2=node_434407229.3 LineCode=CND_907_1F Length=207.98 Units=m
New Line.243631199 Bus1=node_424371712.3 Bus2=node_424371717.3 LineCode=CND_907_1F Length=207.68 Units=m
New Line.247346174 Bus1=node_442925971.2 Bus2=node_442925972.2 LineCode=CND_907_1F Length=318.29 Units=m
New Line.2497218704 Bus1=node_2655860705.3 Bus2=node_2655860715.3 LineCode=CND_911_1F Length=46.57 Units=m
New Line.246783270 Bus1=node_440223411.1.2.3 Bus2=node_440222996.1.2.3 LineCode=CND_50_3F Length=20.72 Units=m
New Line.243631339 Bus1=node_424436826.3 Bus2=node_424436827.3 LineCode=CND_907_1F Length=369.57 Units=m
New Line.245632178 Bus1=node_434407139.1 Bus2=node_434407140.1 LineCode=CND_907_1F Length=11.49 Units=m
New Line.1570195599 Bus1=node_429178253.3 Bus2=node_1889699310.3 LineCode=CND_926_1F Length=105.12 Units=m
New Line.245633914 Bus1=node_434407444.1.2.3 Bus2=node_434755098.1.2.3 LineCode=CND_30_3F Length=7.62 Units=m
New Line.351855139 Bus1=100_351729451.1.2.3 Bus2=node_424304092.1.2.3 LineCode=CND_28_3F Length=12.93 Units=m
New Line.244820315 Bus1=node_430197334.1 Bus2=node_430197345.1 LineCode=CND_907_1F Length=132.17 Units=m
New Line.245632286 Bus1=node_434407615.3 Bus2=node_434407559.3 LineCode=CND_907_1F Length=154.90 Units=m
New Line.247111898 Bus1=node_441523083.2 Bus2=node_441523034.2 LineCode=CND_909_1F Length=26.04 Units=m
New Line.247477632 Bus1=node_443070968.1.2.3 Bus2=node_443337954.1.2.3 LineCode=CND_13_3F Length=47.71 Units=m
New Line.353957406 Bus1=100_353940918.1.2.3 Bus2=node_434757901.1.2.3 LineCode=CND_30_3F Length=22.11 Units=m
New Line.244987075 Bus1=node_430949654.1.2.3 Bus2=node_430197419.1.2.3 LineCode=CND_51_3F Length=300.51 Units=m
New Line.243631277 Bus1=node_424436377.3 Bus2=node_424436517.3 LineCode=CND_907_1F Length=269.47 Units=m
New Line.247346896 Bus1=node_443071039.2 Bus2=node_443071284.2 LineCode=CND_907_1F Length=122.36 Units=m
New Line.245632283 Bus1=node_434407659.2 Bus2=node_434407665.2 LineCode=CND_907_1F Length=248.41 Units=m
New Line.244820355 Bus1=node_430196105.3 Bus2=node_430197534.3 LineCode=CND_907_1F Length=66.64 Units=m
New Line.246113447 Bus1=node_436822123.1 Bus2=node_436822333.1 LineCode=CND_907_1F Length=9.09 Units=m
New Line.245464164 Bus1=node_433441632.3 Bus2=node_433442450.3 LineCode=CND_907_1F Length=55.24 Units=m
New Line.244654867 Bus1=node_429876764.3 Bus2=node_429876789.3 LineCode=CND_907_1F Length=131.19 Units=m
New Line.246783193 Bus1=node_1151135616.1.2.3 Bus2=node_1151135628.1.2.3 LineCode=CND_50_3F Length=30.13 Units=m
New Line.245632036 Bus1=node_434238963.3 Bus2=node_434238964.3 LineCode=CND_907_1F Length=354.30 Units=m
New Line.243630938 Bus1=node_424370406.3 Bus2=node_424370412.3 LineCode=CND_907_1F Length=67.33 Units=m
New Line.246112042 Bus1=node_436510347.3 Bus2=node_436510422.3 LineCode=CND_907_1F Length=195.16 Units=m
New Line.911384424 Bus1=node_1172129143.3 Bus2=node_1172129154.3 LineCode=CND_907_1F Length=334.93 Units=m
New Line.245464028 Bus1=node_433441756.3 Bus2=node_433441777.3 LineCode=CND_907_1F Length=117.60 Units=m
New Line.247611100 Bus1=node_444113458.1.2.3 Bus2=node_444113463.1.2.3 LineCode=CND_13_3F Length=176.33 Units=m
New Line.243631251 Bus1=node_424436362.3 Bus2=node_424371391.3 LineCode=CND_907_1F Length=289.39 Units=m
New Line.2546314091 Bus1=node_424370032.1.2.3 Bus2=node_2780532320.1.2.3 LineCode=CND_10_3F Length=33.98 Units=m
...
